REMARK  7 active torsions:
REMARK  status: ('A' for Active; 'I' for Inactive)
REMARK    1  A    between atoms: CAJ_7  and  CAK_8 
REMARK    2  A    between atoms: CAJ_7  and  CAN_11 
REMARK    3  A    between atoms: CAK_8  and  OAV_21 
REMARK    4  A    between atoms: CAN_11  and  NBE_23 
REMARK    5  A    between atoms: CAZ_17  and  OAT_19 
REMARK    6  A    between atoms: NAS_18  and  C6_30 
REMARK    7  A    between atoms: OAV_21  and  CBA_22 
ROOT
HETATM    1  CAH IRE A2020     -52.195   1.859 -18.839  1.00 89.36     0.045 A 
HETATM    2  CAI IRE A2020     -50.399   0.437 -20.394  1.00 89.07     0.031 A 
HETATM    3  CAZ IRE A2020     -51.131   1.201 -18.216  1.00 89.40     0.118 A 
HETATM    4  CBA IRE A2020     -50.235   0.478 -19.000  1.00 90.01     0.116 A 
HETATM    5  N1  IRE A2020     -52.731   1.745 -22.905  1.00 89.38    -0.205 NA
HETATM    6  C2  IRE A2020     -53.559   2.411 -22.131  1.00 89.47     0.200 A 
HETATM    7  N3  IRE A2020     -53.370   2.446 -20.819  1.00 89.95    -0.224 NA
HETATM    8  C4  IRE A2020     -52.352   1.807 -20.222  1.00 89.32     0.088 A 
HETATM    9  C5  IRE A2020     -51.458   1.101 -21.003  1.00 88.61     0.056 A 
HETATM   10  C6  IRE A2020     -51.681   1.085 -22.378  1.00 89.23     0.166 A 
ENDROOT
BRANCH   4  11
HETATM   11  OAV IRE A2020     -49.194  -0.154 -18.361  1.00 91.27    -0.329 OA
BRANCH  11  12
HETATM   12  CAK IRE A2020     -48.831  -1.483 -18.875  1.00100.10     0.151 C 
BRANCH  12  13
HETATM   13  CAJ IRE A2020     -48.276  -2.469 -17.821  1.00105.09     0.068 C 
BRANCH  13  14
HETATM   14  CAN IRE A2020     -46.751  -2.319 -17.717  1.00110.45     0.253 C 
BRANCH  14  15
HETATM   15  NBE IRE A2020     -46.131  -3.393 -16.914  1.00114.00     0.142 N 
HETATM   16  CAO IRE A2020     -45.480  -2.716 -15.745  1.00115.20     0.282 C 
HETATM   17  CAL IRE A2020     -44.406  -3.592 -15.075  1.00116.13     0.178 C 
HETATM   18  OAU IRE A2020     -43.457  -4.022 -16.108  1.00117.18    -0.350 OA
HETATM   19  CAM IRE A2020     -44.075  -4.866 -17.134  1.00115.82     0.178 C 
HETATM   20  CAP IRE A2020     -45.255  -4.173 -17.846  1.00114.72     0.282 C 
ENDBRANCH  14  15
ENDBRANCH  13  14
ENDBRANCH  12  13
ENDBRANCH  11  12
ENDBRANCH   4  11
BRANCH   3  21
HETATM   21  OAT IRE A2020     -50.948   1.228 -16.851  1.00 89.12    -0.326 OA
HETATM   22  CAA IRE A2020     -51.165   2.487 -16.195  1.00 87.35     0.181 C 
ENDBRANCH   3  21
BRANCH  10  23
HETATM   23  NAS IRE A2020     -50.876   0.406 -23.183  1.00 89.31    -0.227 NA
HETATM   24  CAY IRE A2020     -50.978   0.472 -24.509  1.00 89.06     0.084 A 
HETATM   25  CAE IRE A2020     -51.103  -0.682 -25.280  1.00 89.23     0.021 A 
HETATM   26  CAG IRE A2020     -50.925   1.714 -25.133  1.00 89.22     0.033 A 
HETATM   27  CAD IRE A2020     -51.189  -0.585 -26.674  1.00 89.45     0.032 A 
HETATM   28  CAW IRE A2020     -51.141   0.667 -27.293  1.00 89.10     0.151 A 
HETATM   29  FAB IRE A2020     -51.218   0.793 -28.634  1.00 88.75    -0.203 F 
HETATM   30  CAX IRE A2020     -51.007   1.806 -26.512  1.00 89.05     0.087 A 
HETATM   31 CL   IRE A2020     -50.943   3.360 -27.240  1.00 89.85    -0.080 Cl
ENDBRANCH  10  23
TORSDOF 7
